CPDS_validation_cosim/Distribution/Bus11/IEEE34Bus/ieee34-1_VLL.Txt

SYMMETRICAL COMPONENT PHASE-PHASE VOLTAGES BY BUS (for 3-phase buses)

Bus        Mag:   V1 (kV)    p.u.     V2 (kV)   %V2/V1    V0 (kV)    %V0/V1

sourcebus     72.45       1.05  5.967E-005  8.236E-005 1.029E-014 1.42E-014
800           26.14       1.05  3.875E-005  0.0001482 2.876E-015  1.1E-014
802            26.1      1.048    0.00585    0.02242 2.728E-015 1.045E-014
806           26.07      1.047    0.01005    0.03855 3.638E-015 1.396E-014
808            25.5      1.024    0.09383      0.368 4.638E-015 1.819E-014
810            14.8     0.5943          0          0         0         0
812           24.85     0.9978     0.1971     0.7933 2.876E-015 1.158E-014
814           24.33      0.977     0.2795      1.149 2.274E-015 9.346E-015
814r          25.53      1.025     0.1568     0.6145 2.876E-015 1.127E-014
850           25.53      1.025     0.1568     0.6144 1.364E-015 5.345E-015
816           25.52      1.025      0.156     0.6112 3.311E-015 1.297E-014
818           14.78     0.5934          0          0         0         0
824           25.29      1.016      0.155     0.6127 2.034E-015 8.04E-015
820           14.44     0.5798          0          0         0         0
822           14.39     0.5781          0          0         0         0
826           14.59     0.5861          0          0         0         0
828           25.28      1.015     0.1547     0.6121 3.75E-015 1.484E-014
830           24.85     0.9979     0.1522     0.6124 4.547E-015 1.83E-014
854           24.84     0.9975     0.1522     0.6127 3.183E-015 1.282E-014
832           25.99      1.044     0.2226     0.8563 3.311E-015 1.274E-014
858           25.94      1.042     0.2245     0.8657 3.638E-015 1.403E-014
834           25.87      1.039     0.2266     0.8759 3.311E-015 1.28E-014
860           25.86      1.039     0.2268      0.877 3.638E-015 1.407E-014
842           25.87      1.039     0.2266     0.8757 3.311E-015 1.28E-014
836           25.86      1.038     0.2263      0.875 2.274E-015 8.794E-015
840           25.86      1.038     0.2262      0.875 3.638E-015 1.407E-014
862           25.86      1.038     0.2262     0.8749 4.093E-015 1.583E-014
844           25.86      1.039     0.2264     0.8754 2.876E-015 1.112E-014
846           25.87      1.039     0.2257     0.8725 4.193E-015 1.621E-014
848           25.87      1.039     0.2256     0.8719 2.274E-015 8.789E-015
852r          25.99      1.044     0.2226     0.8563 3.183E-015 1.225E-014
888           4.192      1.008    0.03648     0.8702 4.547E-016 1.085E-014
856           14.33     0.5756          0          0         0         0
852           24.09     0.9675     0.1608     0.6677 3.183E-015 1.321E-014
864           15.04     0.6041          0          0         0         0
838           14.95     0.6003          0          0         0         0
890           3.859     0.9277    0.04772      1.236 6.821E-016 1.767E-014
